14

C         1.779486       -0.388256        0.135977
C         0.631581       0.435887        -0.443525
H         2.653794       -0.395906        -0.531483
H         1.475418       -1.434141        0.298794
H         2.102386       0.016157        1.107215
C         -0.631581       0.435887        0.443525
H         0.376036       0.059084        -1.447490
H         0.981971       1.469015        -0.595711
C         -1.779486       -0.388256        -0.135977
H         -0.981971       1.469015        0.595712
H         -0.376036       0.059084        1.447490
H         -2.102385       0.016156        -1.107216
H         -2.653795       -0.395904        0.531483
H         -1.475418       -1.434141        -0.298793
