14

C         1.779652       -0.388069        -0.135992
C         0.631476       0.435706        0.443566
H         2.653678       -0.395948        0.531824
H         2.102801       0.016825        -1.106912
H         1.475602       -1.433863        -0.299362
C         -0.631476       0.435706        -0.443566
H         0.981738       1.468810        0.596393
H         0.375913       0.058354        1.447317
C         -1.779652       -0.388069        0.135992
H         -0.375913       0.058354        -1.447317
H         -0.981738       1.468810        -0.596392
H         -1.475602       -1.433863        0.299362
H         -2.653678       -0.395948        -0.531824
H         -2.102801       0.016825        1.106912
