14

C         1.486474       -0.619257        -0.086330
C         0.749052       0.692228        0.177285
H         2.557366       -0.515984        0.141425
H         1.401560       -0.930728        -1.139568
H         1.094960       -1.437164        0.533954
C         -0.749052       0.692228        -0.177285
H         1.244160       1.515728        -0.360882
H         0.858734       0.930319        1.249547
C         -1.486474       -0.619257        0.086330
H         -0.858734       0.930319        -1.249547
H         -1.244160       1.515728        0.360882
H         -1.094961       -1.437163        -0.533956
H         -2.557366       -0.515983        -0.141423
H         -1.401558       -0.930729        1.139567
