14

C         1.607490       -0.532952        0.128404
C         0.688710       0.595611        -0.335647
H         2.589175       -0.478708        -0.364317
H         1.183835       -1.523773        -0.092640
H         1.775509       -0.479362        1.215099
C         -0.688710       0.595611        0.335647
H         0.557904       0.546191        -1.430197
H         1.183300       1.559698        -0.133546
C         -1.607490       -0.532952        -0.128404
H         -1.183300       1.559698        0.133546
H         -0.557904       0.546191        1.430197
H         -1.775510       -0.479361        -1.215099
H         -2.589175       -0.478708        0.364318
H         -1.183835       -1.523773        0.092639
