14

C         1.607516       -0.532841        -0.128447
C         0.688560       0.595529        0.335805
H         2.589099       -0.478622        0.364425
H         1.775655       -0.478877        -1.215086
H         1.183978       -1.523785        0.092203
C         -0.688560       0.595529        -0.335805
H         1.183263       1.559712        0.134399
H         0.557508       0.545441        1.430295
C         -1.607516       -0.532841        0.128447
H         -0.557508       0.545442        -1.430295
H         -1.183263       1.559712        -0.134399
H         -1.183977       -1.523785        -0.092201
H         -2.589099       -0.478623        -0.364426
H         -1.775657       -0.478876        1.215085
