14

C         1.955421       -0.119990        -0.000128
C         0.566777       0.512293        0.000103
H         2.747975       0.642306        0.000146
H         2.102036       -0.754406        -0.887681
H         2.101970       -0.754778        0.887197
C         -0.566777       -0.512293        0.000104
H         0.458789       1.169063        -0.880072
H         0.459082       1.168770        0.880552
C         -1.955421       0.119990        -0.000127
H         -0.459081       -1.168768        0.880555
H         -0.458789       -1.169065        -0.880069
H         -2.101973       0.754773        0.887200
H         -2.747975       -0.642306        0.000139
H         -2.102033       0.754410        -0.887678
